Test Models/Generated Test Model/Gridlabd_Model_NR.glm
//IEEE 8500 node test system.
//  Generated 16-Nov-2020 14:11:00 using Matlab 9.8.0.1380330 (R2020a) Update 2.

clock {
     starttime '2012-04-08 00:00:00';
     stoptime '2014-04-08 17:00:00';
}

module powerflow {
    solver_method NR;
    line_limits FALSE;
    default_maximum_voltage_error 1e-4;
};
module residential {
     implicit_enduses NONE;
ANSI_voltage_check FALSE;
}
module climate;
module tape;

#set minimum_timestep=1800;
#set profiler=1;
#set relax_naming_rules=1;
#set suppress_repeat_messages=1;
#set savefile="8500_balanced_NR.xml";
module market;

class auction {
    double current_price_mean_24h;
    double current_price_stdev_24h;
}

object auction {
    name Market_1;
    special_mode NONE;
    unit kW;
    period 300;
    init_price 30;
    init_stdev 5;
    capacity_reference_object HVMV_Sub;
    capacity_reference_property power_out_real;

    object player {
        property capacity_reference_bid_price;
        file Market/ExamplePrices2.player;
        loop 150;
    };

    max_capacity_reference_bid_quantity 500000;
    warmup 0;
}

// Transformer and configuration at feeder

object transformer_configuration:27500 {
     connect_type DELTA_GWYE;
     name trans_config_1;
     install_type PADMOUNT;
     power_rating 27500kVA;
     primary_voltage 115.0kV;
     secondary_voltage 12.47kV;
     reactance 0.15510;
     resistance 0.01344;
}

object transformer {
     phases ABCN;
     name "HVMV_Sub";
     from "HVMV_Sub_HSB";
     to "regxfmr_HVMV_Sub_LSB";
     configuration trans_config_1;
}

object node {
     phases ABCN;
     name "regxfmr_HVMV_Sub_LSB";
     nominal_voltage 7199.558;
}

object node {
     phases ABCN;
     name "HVMV_Sub_HSB";
     bustype SWING;
     voltage_A 69512-0.7d;
     voltage_B 69557-120.7d;
     voltage_C 69595+119.3d;
     nominal_voltage 69512;
}

object node {
     phases ABCN;
     name "HVMV_Sub_48332";
     nominal_voltage 7199.558;
}

object regulator {
     name "FEEDER_REG";
     phases ABCN;
     from "regxfmr_HVMV_Sub_LSB";
     to "_HVMV_Sub_LSB";
     configuration reg_config_1;
}

object regulator_configuration {
     connect_type 1;
     name reg_config_1;
     Control OUTPUT_VOLTAGE;
     band_center 7500.0;
     band_width 120.0;
     time_delay 60.0;
     raise_taps 16;
     lower_taps 16;
     regulation 0.1;
     Type B;
}

// Center-tap transformer configurations

object transformer_configuration {           
     name "1515A";                           
     connect_type SINGLE_PHASE_CENTER_TAPPED;
     install_type POLETOP;                   
     primary_voltage 7200.0V;                
     secondary_voltage 120.0V;               
     power_rating 15.0kVA;                   
     powerA_rating 15.0kVA;                  
     impedance 0.006000+0.013600j;           
     impedance1 0.012000+0.006800j;          
     impedance2 0.012000+0.006800j;          
     shunt_impedance 1728000+691200j;        
}                                            
object transformer_configuration {           
     name "2525B";                           
     connect_type SINGLE_PHASE_CENTER_TAPPED;
     install_type POLETOP;                   
     primary_voltage 7200.0;                 
     secondary_voltage 120.0;                
     power_rating 25.0;                      
     powerB_rating 25.0;                     
     impedance 0.006+0.0136j;                
     impedance1 0.012+0.0204j;               
     impedance2 0.012+0.0204j;               
     shunt_impedance 1036800+414720j;        
}                                            
object transformer_configuration {           
     name "1515C";                           
     connect_type SINGLE_PHASE_CENTER_TAPPED;
     install_type POLETOP;                   
     primary_voltage 7200.0;                 
     secondary_voltage 120.0;                
     power_rating 15.0;                      
     powerC_rating 15.0;                     
     impedance 0.006+0.0136j;                
     impedance1 0.012+0.0204j;               
     impedance2 0.012+0.0204j;               
     shunt_impedance 1728000+691200j;        
}                                            
object transformer_configuration {           
     name "3838A";                           
     connect_type SINGLE_PHASE_CENTER_TAPPED;
     install_type POLETOP;                   
     primary_voltage 7200.0;                 
     secondary_voltage 120.0;                
     power_rating 37.5;                      
     powerA_rating 37.5;                     
     impedance 0.006+0.0136j;                
     impedance1 0.012+0.0204j;               
     impedance2 0.012+0.0204j;               
     shunt_impedance 691200+276480j;         
}                                            
object transformer_configuration {           
     name "1515B";                           
     connect_type SINGLE_PHASE_CENTER_TAPPED;
     install_type POLETOP;                   
     primary_voltage 7200.0;                 
     secondary_voltage 120.0;                
     power_rating 15.0;                      
     powerB_rating 15.0;                     
     impedance 0.006+0.0136j;                
     impedance1 0.012+0.0204j;               
     impedance2 0.012+0.0204j;               
     shunt_impedance 1728000+691200j;        
}                                            
object transformer_configuration {           
     name "5050A";                           
     connect_type SINGLE_PHASE_CENTER_TAPPED;
     install_type POLETOP;                   
     primary_voltage 7200.0;                 
     secondary_voltage 120.0;                
     power_rating 50.0;                      
     powerA_rating 50.0;                     
     impedance 0.006+0.0136j;                
     impedance1 0.012+0.0204j;               
     impedance2 0.012+0.0204j;               
     shunt_impedance 518400+207360j;         
}                                            
object transformer_configuration {           
     name "5050B";                           
     connect_type SINGLE_PHASE_CENTER_TAPPED;
     install_type POLETOP;                   
     primary_voltage 7200.0;                 
     secondary_voltage 120.0;                
     power_rating 50.0;                      
     powerB_rating 50.0;                     
     impedance 0.006+0.0136j;                
     impedance1 0.012+0.0204j;               
     impedance2 0.012+0.0204j;               
     shunt_impedance 518400+207360j;         
}                                            
object transformer_configuration {           
     name "5050C";                           
     connect_type SINGLE_PHASE_CENTER_TAPPED;
     install_type POLETOP;                   
     primary_voltage 7200.0;                 
     secondary_voltage 120.0;                
     power_rating 50.0;                      
     powerC_rating 50.0;                     
     impedance 0.006+0.0136j;                
     impedance1 0.012+0.0204j;               
     impedance2 0.012+0.0204j;               
     shunt_impedance 518400+207360j;         
}                                            
object transformer_configuration {           
     name "1010A";                           
     connect_type SINGLE_PHASE_CENTER_TAPPED;
     install_type POLETOP;                   
     primary_voltage 7200.0;                 
     secondary_voltage 120.0;                
     power_rating 10.0;                      
     powerA_rating 10.0;                     
     impedance 0.006+0.0136j;                
     impedance1 0.012+0.0204j;               
     impedance2 0.012+0.0204j;               
     shunt_impedance 2592000+1036800j;       
}                                            
object transformer_configuration {           
     name "1010B";                           
     connect_type SINGLE_PHASE_CENTER_TAPPED;
     install_type POLETOP;                   
     primary_voltage 7200.0;                 
     secondary_voltage 120.0;                
     power_rating 10.0;                      
     powerB_rating 10.0;                     
     impedance 0.006+0.0136j;                
     impedance1 0.012+0.0204j;               
     impedance2 0.012+0.0204j;               
     shunt_impedance 2592000+1036800j;       
}                                            
object transformer_configuration {           
     name "2525A";                           
     connect_type SINGLE_PHASE_CENTER_TAPPED;
     install_type POLETOP;                   
     primary_voltage 7200.0;                 
     secondary_voltage 120.0;                
     power_rating 25.0;                      
     powerA_rating 25.0;                     
     impedance 0.006+0.0136j;                
     impedance1 0.012+0.0204j;               
     impedance2 0.012+0.0204j;               
     shunt_impedance 1036800+414720j;        
}                                            
object transformer_configuration {           
     name "1010C";                           
     connect_type SINGLE_PHASE_CENTER_TAPPED;
     install_type POLETOP;                   
     primary_voltage 7200.0;                 
     secondary_voltage 120.0;                
     power_rating 10.0;                      
     powerC_rating 10.0;                     
     impedance 0.006+0.0136j;                
     impedance1 0.012+0.0204j;               
     impedance2 0.012+0.0204j;               
     shunt_impedance 2592000+1036800j;       
}                                            
object transformer_configuration {           
     name "2525C";                           
     connect_type SINGLE_PHASE_CENTER_TAPPED;
     install_type POLETOP;                   
     primary_voltage 7200.0;                 
     secondary_voltage 120.0;                
     power_rating 25.0;                      
     powerC_rating 25.0;                     
     impedance 0.006+0.0136j;                
     impedance1 0.012+0.0204j;               
     impedance2 0.012+0.0204j;               
     shunt_impedance 1036800+414720j;        
}                                            
object transformer_configuration {           
     name "7575C";                           
     connect_type SINGLE_PHASE_CENTER_TAPPED;
     install_type POLETOP;                   
     primary_voltage 7200.0;                 
     secondary_voltage 120.0;                
     power_rating 75.0;                      
     powerC_rating 75.0;                     
     impedance 0.006+0.0136j;                
     impedance1 0.012+0.0204j;               
     impedance2 0.012+0.0204j;               
     shunt_impedance 345600+138240j;         
}                                            
object transformer_configuration {           
     name "3838C";                           
     connect_type SINGLE_PHASE_CENTER_TAPPED;
     install_type POLETOP;                   
     primary_voltage 7200.0;                 
     secondary_voltage 120.0;                
     power_rating 37.5;                      
     powerC_rating 37.5;                     
     impedance 0.006+0.0136j;                
     impedance1 0.012+0.0204j;               
     impedance2 0.012+0.0204j;               
     shunt_impedance 691200+276480j;         
}                                            
object transformer_configuration {           
     name "55B";                             
     connect_type SINGLE_PHASE_CENTER_TAPPED;
     install_type POLETOP;                   
     primary_voltage 7200.0;                 
     secondary_voltage 120.0;                
     power_rating 5.0;                       
     powerB_rating 5.0;                      
     impedance 0.006+0.0136j;                
     impedance1 0.012+0.0204j;               
     impedance2 0.012+0.0204j;               
     shunt_impedance 5184000+2073600j;       
}                                            
object transformer_configuration {           
     name "3838B";                           
     connect_type SINGLE_PHASE_CENTER_TAPPED;
     install_type POLETOP;                   
     primary_voltage 7200.0;                 
     secondary_voltage 120.0;                
     power_rating 37.5;                      
     powerB_rating 37.5;                     
     impedance 0.006+0.0136j;                
     impedance1 0.012+0.0204j;               
     impedance2 0.012+0.0204j;               
     shunt_impedance 691200+276480j;         
}                                            
object transformer_configuration {           
     name "7575A";                           
     connect_type SINGLE_PHASE_CENTER_TAPPED;
     install_type POLETOP;                   
     primary_voltage 7200.0;                 
     secondary_voltage 120.0;                
     power_rating 75.0;                      
     powerA_rating 75.0;                     
     impedance 0.006+0.0136j;                
     impedance1 0.012+0.0204j;               
     impedance2 0.012+0.0204j;               
     shunt_impedance 345600+138240j;         
}                                            
object transformer_configuration {           
     name "7575B";                           
     connect_type SINGLE_PHASE_CENTER_TAPPED;
     install_type PADMOUNT;                  
     primary_voltage 7200.0;                 
     secondary_voltage 120.0;                
     power_rating 75.0;                      
     powerB_rating 75.0;                     
     impedance 0.006+0.0136j;                
     impedance1 0.012+0.0204j;               
     impedance2 0.012+0.0204j;               
     shunt_impedance 345600+138240j;         
}                                            
object transformer_configuration {           
     name "55A";                             
     connect_type SINGLE_PHASE_CENTER_TAPPED;
     install_type POLETOP;                   
     primary_voltage 7200.0;                 
     secondary_voltage 120.0;                
     power_rating 5.0;                       
     powerA_rating 5.0;                      
     impedance 0.006+0.0136j;                
     impedance1 0.012+0.0204j;               
     impedance2 0.012+0.0204j;               
     shunt_impedance 5184000+2073600j;       
}                                            
object transformer_configuration {           
     name "250250A";                         
     connect_type SINGLE_PHASE_CENTER_TAPPED;
     install_type POLETOP;                   
     primary_voltage 7200.0;                 
     secondary_voltage 120.0;                
     power_rating 250.0;                     
     powerA_rating 250.0;                    
     impedance 0.006+0.0136j;                
     impedance1 0.012+0.0204j;               
     impedance2 0.012+0.0204j;               
     shunt_impedance 103680+41472j;          
}                                            
object transformer_configuration {           
     name "250250B";                         
     connect_type SINGLE_PHASE_CENTER_TAPPED;
     install_type POLETOP;                   
     primary_voltage 7200.0;                 
     secondary_voltage 120.0;                
     power_rating 250.0;                     
     powerB_rating 250.0;                    
     impedance 0.006+0.0136j;                
     impedance1 0.012+0.0204j;               
     impedance2 0.012+0.0204j;               
     shunt_impedance 103680+41472j;          
}                                            
object transformer_configuration {           
     name "250250C";                         
     connect_type SINGLE_PHASE_CENTER_TAPPED;
     install_type POLETOP;                   
     primary_voltage 7200.0;                 
     secondary_voltage 120.0;                
     power_rating 250.0;                     
     powerC_rating 250.0;                    
     impedance 0.006+0.0136j;                
     impedance1 0.012+0.0204j;               
     impedance2 0.012+0.0204j;               
     shunt_impedance 103680+41472j;          
}                                            
object transformer_configuration {           
     name "100100B";                         
     connect_type SINGLE_PHASE_CENTER_TAPPED;
     install_type POLETOP;                   
     primary_voltage 7200.0;                 
     secondary_voltage 120.0;                
     power_rating 100.0;                     
     powerB_rating 100.0;                    
     impedance 0.006+0.0136j;                
     impedance1 0.012+0.0204j;               
     impedance2 0.012+0.0204j;               
     shunt_impedance 259200+103680j;         
}                                            
// Triplex Node Objects with loads

class player {
      double value;
}
object node {
phases ABC;
name "node_1";
nominal_voltage 7199.558;
}

object transformer { 
     name transformer_1; 
     phases BS;
     from "node_1";
     to "tnode_1";
     configuration "7575B";
}
object triplex_node {
     name "tnode_1";
     nominal_voltage 120;
     phases BS;

}

object recorder {
     name "Recorder1";
     parent "meter_1";
     interval 1800;
     property measured_real_energy,measured_power,measured_real_power,measured_demand,monthly_bill,price;
     file strom/strom_1.csv;
}
object triplex_line { 
     name "tline_1";  
     phases BS;
     from "tnode_1";
     to "meter_1";
     length 15;
     configuration "4/0Triplex";
}
object triplex_meter {  
     name "meter_1";
     phases BS;
bill_mode HOURLY;
power_market Market_1;
 bill_day 1;
     voltage_1 120; 
     voltage_2 120;
     voltage_N 0;    
     nominal_voltage 120;  
} 
object house {
  parent "meter_1";
  name "house_1";
  heating_system_type NONE;
  cooling_system_type NONE;
  object ZIPload {
         name "house1_load";
         base_power LOAD1_player.value;
  };

  }

object player {
name LOAD1_player;
file player/Load_profile_1.player;
}

// Node Objects

object node {
     phases ABCN;
     name "_HVMV_Sub_LSB";
     nominal_voltage 7199.558;
}

// Overhead Line Conductors and configurations.
object overhead_line_conductor {
     name "1/0_ACSR";
     geometric_mean_radius 0.135890cm;
     resistance 0.646847Ohm/km;
     rating.summer.emergency 260 A;
     rating.summer.continuous 260 A;
     rating.winter.emergency 260 A;
     rating.winter.continuous 260 A;
}

object overhead_line_conductor {
     name "600_CU";
     geometric_mean_radius 0.838200cm;
     resistance 0.062323Ohm/km;
     rating.summer.emergency 536 A;
     rating.summer.continuous 536 A;
     rating.winter.emergency 536 A;
     rating.winter.continuous 536 A;
}

object overhead_line_conductor {
     name "4_DPX";
     geometric_mean_radius 0.213360cm;
     resistance 1.522297Ohm/km;
     rating.summer.emergency 136 A;
     rating.summer.continuous 136 A;
     rating.winter.emergency 136 A;
     rating.winter.continuous 136 A;
}

object overhead_line_conductor {
     name "2_ACSR";
     geometric_mean_radius 0.127508cm;
     resistance 1.010163Ohm/km;
     rating.summer.emergency 200 A;
     rating.summer.continuous 200 A;
     rating.winter.emergency 200 A;
     rating.winter.continuous 200 A;
}

object overhead_line_conductor {
     name "4_ACSR";
     geometric_mean_radius 0.133096cm;
     resistance 1.572497Ohm/km;
     rating.summer.emergency 150 A;
     rating.summer.continuous 150 A;
     rating.winter.emergency 150 A;
     rating.winter.continuous 150 A;
}

object overhead_line_conductor {
     name "2/0_WPAL";
     geometric_mean_radius 0.155448cm;
     resistance 0.530030Ohm/km;
     rating.summer.emergency 300 A;
     rating.summer.continuous 300 A;
     rating.winter.emergency 300 A;
     rating.winter.continuous 300 A;
}

object overhead_line_conductor {
     name "1/0_TPX";
     geometric_mean_radius 0.347980cm;
     resistance 0.114332Ohm/km;
     rating.summer.emergency 205 A;
     rating.summer.continuous 205 A;
     rating.winter.emergency 205 A;
     rating.winter.continuous 205 A;
}

object overhead_line_conductor {
     name "4_TPX";
     geometric_mean_radius 0.213360cm;
     resistance 1.522297Ohm/km;
     rating.summer.emergency 115 A;
     rating.summer.continuous 115 A;
     rating.winter.emergency 115 A;
     rating.winter.continuous 115 A;
}

object overhead_line_conductor {
     name "1/0_3W_CS";
     geometric_mean_radius 0.347980cm;
     resistance 0.603674Ohm/km;
     rating.summer.emergency 200 A;
     rating.summer.continuous 200 A;
     rating.winter.emergency 200 A;
     rating.winter.continuous 200 A;
}

object overhead_line_conductor {
     name "2_WPAL";
     geometric_mean_radius 0.127508cm;
     resistance 1.050198Ohm/km;
     rating.summer.emergency 155 A;
     rating.summer.continuous 155 A;
     rating.winter.emergency 155 A;
     rating.winter.continuous 155 A;
}

object overhead_line_conductor {
     name "4/0_TPX";
     geometric_mean_radius 0.480568cm;
     resistance 0.301837Ohm/km;
     rating.summer.emergency 318 A;
     rating.summer.continuous 318 A;
     rating.winter.emergency 318 A;
     rating.winter.continuous 318 A;
}

object overhead_line_conductor {
     name "DEFAULT";
     geometric_mean_radius 0.883920cm;
     resistance 0.121789Ohm/km;
     rating.summer.emergency 89 A;
     rating.summer.continuous 89 A;
     rating.winter.emergency 89 A;
     rating.winter.continuous 89 A;
}

object overhead_line_conductor {
     name "397_ACSR";
     geometric_mean_radius 0.731520cm;
     resistance 0.159692Ohm/km;
     rating.summer.emergency 630 A;
     rating.summer.continuous 630 A;
     rating.winter.emergency 630 A;
     rating.winter.continuous 630 A;
}

object overhead_line_conductor {
     name "6_WPAL";
     geometric_mean_radius 0.120142cm;
     resistance 2.430120Ohm/km;
     rating.summer.emergency 115 A;
     rating.summer.continuous 115 A;
     rating.winter.emergency 115 A;
     rating.winter.continuous 115 A;
}

object overhead_line_conductor {
     name "4_WPAL";
     geometric_mean_radius 0.213360cm;
     resistance 1.528212Ohm/km;
     rating.summer.emergency 150 A;
     rating.summer.continuous 150 A;
     rating.winter.emergency 150 A;
     rating.winter.continuous 150 A;
}

object overhead_line_conductor {
     name "2/0_ACSR";
     geometric_mean_radius 0.155448cm;
     resistance 0.530030Ohm/km;
     rating.summer.emergency 300 A;
     rating.summer.continuous 300 A;
     rating.winter.emergency 300 A;
     rating.winter.continuous 300 A;
}

object line_spacing {
     name SinglePhase1A;
     distance_AN 2.3062m;
}

object line_spacing {
     name SinglePhase1B;
     distance_BN 2.3062m;
}

object line_spacing {
     name SinglePhase1C;
     distance_CN 2.3062m;
}

object line_spacing {
     name TwoPhase1AC;
     distance_AC 1.2192m;
     distance_CN 1.5911m;
     distance_AN 1.70388m;
}

object line_spacing {
     name ThreePhase1;
     distance_AB 0.97584m;
     distance_AC 1.2192m;
     distance_BC 0.762m;
     distance_BN 2.1336m;
     distance_AN 1.70388m;
     distance_CN 1.5911m;
}

object line_configuration {
     name "1PH-x4_ACSRx4_ACSR";
     conductor_B "4_ACSR";
     conductor_N "4_ACSR";
     spacing SinglePhase1B;
}

object line_configuration {
     name "1PH-xx4_ACSR4_ACSR";
     conductor_C "4_ACSR";
     conductor_N "4_ACSR";
     spacing SinglePhase1C;
}

object line_configuration {
     name "1PH-x2_ACSRx2_ACSR";
     conductor_B "2_ACSR";
     conductor_N "2_ACSR";
     spacing SinglePhase1B;
}

object line_configuration {
     name "1PH-x4_ACSRx4_WPAL";
     conductor_B "4_ACSR";
     conductor_N "4_WPAL";
     spacing SinglePhase1B;
}

object line_configuration {
     name "3PH_H-2/0_ACSR2/0_ACSR2/0_ACSR2_ACSR";
     conductor_A "2/0_ACSR";
     conductor_B "2/0_ACSR";
     conductor_C "2/0_ACSR";
     conductor_N "2_ACSR";
     spacing ThreePhase1;
}

object line_configuration {
     name "3PH_H-4_ACSR4_ACSR4_ACSR4_ACSR";
     conductor_A "4_ACSR";
     conductor_B "4_ACSR";
     conductor_C "4_ACSR";
     conductor_N "4_ACSR";
     spacing ThreePhase1;
}

object line_configuration {
     name "1PH-4_WPALxx2_WPAL";
     conductor_A "4_ACSR";
     conductor_N "4_ACSR";
     spacing SinglePhase1A;
}

object line_configuration {
     name "3PH_H-4_ACSR2_ACSR2_ACSR4_WPAL";
     conductor_A "4_ACSR";
     conductor_B "2_ACSR";
     conductor_C "2_ACSR";
     conductor_N "4_WPAL";
     spacing ThreePhase1;
}

object line_configuration {
     name "1PH-4_ACSRxx4_ACSR";
     conductor_A "4_ACSR";
     conductor_N "4_ACSR";
     spacing SinglePhase1A;
}

object line_configuration {
     name "3PH_H-4_ACSR4_ACSR4_ACSR4_WPAL";
     conductor_A "4_ACSR";
     conductor_B "4_ACSR";
     conductor_C "4_ACSR";
     conductor_N "4_WPAL";
     spacing ThreePhase1;
}

object line_configuration {
     name "1PH-2_ACSRxx2_ACSR";
     conductor_A "2_ACSR";
     conductor_N "2_ACSR";
     spacing SinglePhase1A;
}

object line_configuration {
     name "1PH-4_WPALxx4_ACSR";
     conductor_A "4_WPAL";
     conductor_N "4_ACSR";
     spacing SinglePhase1A;
}

object line_configuration {
     name "3PH_H-397_ACSR397_ACSR397_ACSR2/0_ACSR";
     conductor_A "397_ACSR";
     conductor_B "397_ACSR";
     conductor_C "397_ACSR";
     conductor_N "2/0_ACSR";
     spacing ThreePhase1;
}

object line_configuration {
     name "1PH-2_ACSRxx4_ACSR";
     conductor_A "2_ACSR";
     conductor_N "4_ACSR";
     spacing SinglePhase1A;
}

object line_configuration {
     name "1PH-xx2_ACSR2_ACSR";
     conductor_C "2_ACSR";
     conductor_N "2_ACSR";
     spacing SinglePhase1C;
}

object line_configuration {
     name "1PH-xx4_WPAL4_WPAL";
     conductor_C "4_WPAL";
     conductor_N "4_WPAL";
     spacing SinglePhase1C;
}

object line_configuration {
     name "1PH-x4_WPALx4_WPAL";
     conductor_B "4_WPAL";
     conductor_N "4_WPAL";
     spacing SinglePhase1B;
}

object line_configuration {
     name "1PH-xx4_WPAL4_ACSR";
     conductor_C "4_WPAL";
     conductor_N "4_ACSR";
     spacing SinglePhase1C;
}

object line_configuration {
     name "1PH-x2_ACSRx1/0_TPX";
     conductor_B "2_ACSR";
     conductor_N "1/0_TPX";
     spacing SinglePhase1B;
}

object line_configuration {
     name "1PH-4_ACSRxx4_WPAL";
     conductor_A "4_ACSR";
     conductor_N "4_WPAL";
     spacing SinglePhase1A;
}

object line_configuration {
     name "1PH-xx4_ACSR1/0_TPX";
     conductor_C "4_ACSR";
     conductor_N "1/0_TPX";
     spacing SinglePhase1C;
}

object line_configuration {
     name "3PH_H-4_WPAL4_WPAL4_WPAL4_ACSR";
     conductor_A "4_WPAL";
     conductor_B "4_WPAL";
     conductor_C "4_WPAL";
     conductor_N "4_ACSR";
     spacing ThreePhase1;
}

object line_configuration {
     name "1PH-x4_WPALx4_ACSR";
     conductor_B "4_WPAL";
     conductor_N "4_ACSR";
     spacing SinglePhase1B;
}

object line_configuration {
     name "1PH-4_WPALxx4_WPAL";
     conductor_A "4_WPAL";
     conductor_N "4_WPAL";
     spacing SinglePhase1A;
}

object line_configuration {
     name "3PH_H-4_WPAL4_WPAL4_WPAL4_WPAL";
     conductor_A "4_WPAL";
     conductor_B "4_WPAL";
     conductor_C "4_WPAL";
     conductor_N "4_WPAL";
     spacing ThreePhase1;
}

object line_configuration {
     name "3PH_H-2_ACSR2_ACSR2_ACSR2_ACSR";
     conductor_A "2_ACSR";
     conductor_B "2_ACSR";
     conductor_C "2_ACSR";
     conductor_N "2_ACSR";
     spacing ThreePhase1;
}

object line_configuration {
     name "1PH-4_ACSRxx1/0_TPX";
     conductor_A "4_ACSR";
     conductor_N "1/0_TPX";
     spacing SinglePhase1A;
}

object line_configuration {
     name "3PH_H-4_ACSR2_ACSR2_ACSR4_ACSR";
     conductor_A "4_ACSR";
     conductor_B "2_ACSR";
     conductor_C "2_ACSR";
     conductor_N "4_ACSR";
     spacing ThreePhase1;
}

object line_configuration {
     name "1PH-xx4_ACSR4_WPAL";
     conductor_C "4_ACSR";
     conductor_N "4_WPAL";
     spacing SinglePhase1C;
}

object line_configuration {
     name "1PH-4_ACSRxx2_ACSR";
     conductor_A "4_ACSR";
     conductor_N "2_ACSR";
     spacing SinglePhase1A;
}

object line_configuration {
     name "1PH-x4_WPALx1/0_TPX";
     conductor_B "4_WPAL";
     conductor_N "1/0_TPX";
     spacing SinglePhase1B;
}

object line_configuration {
     name "1PH-xx4_ACSR1/0_ACSR";
     conductor_C "4_ACSR";
     conductor_N "1/0_ACSR";
     spacing SinglePhase1C;
}

object line_configuration {
     name "1PH-2_ACSRxx4_WPAL";
     conductor_A "2_ACSR";
     conductor_N "4_WPAL";
     spacing SinglePhase1A;
}

object line_configuration {
     name "1PH-xx2/0_ACSR1/0_TPX";
     conductor_C "2/0_ACSR";
     conductor_N "1/0_TPX";
     spacing SinglePhase1C;
}

object line_configuration {
     name "2PH_H-2_ACSRx2_ACSR2_ACSR";
     conductor_A "2_ACSR";
     conductor_C "2_ACSR";
     conductor_N "2_ACSR";
     spacing TwoPhase1AC;
}

object line_configuration {
     name "1PH-2_WPALxx2_WPAL";
     conductor_A "2_WPAL";
     conductor_N "2_WPAL";
     spacing SinglePhase1A;
}

object line_configuration {
     name "1PH-2_ACSRxx4/0_TPX";
     conductor_A "2_ACSR";
     conductor_N "4/0_TPX";
     spacing SinglePhase1A;
}

object line_configuration {
     name "3PH_H-397_ACSR397_ACSR397_ACSR4_WPAL";
     conductor_A "397_ACSR";
     conductor_B "397_ACSR";
     conductor_C "397_ACSR";
     conductor_N "4_WPAL";
     spacing ThreePhase1;
}

object line_configuration {
     name "3PH_H-397_ACSR397_ACSR397_ACSR397_ACSR";
     conductor_A "397_ACSR";
     conductor_B "397_ACSR";
     conductor_C "397_ACSR";
     conductor_N "397_ACSR";
     spacing ThreePhase1;
}

object line_configuration {
     name "1PH-xx2_ACSR1/0_TPX";
     conductor_C "2_ACSR";
     conductor_N "1/0_TPX";
     spacing SinglePhase1C;
}

object line_configuration {
     name "1PH-x4_ACSRx2_WPAL";
     conductor_B "4_ACSR";
     conductor_N "2_WPAL";
     spacing SinglePhase1B;
}

object line_configuration {
     name "1PH-x4_ACSRx4_DPX";
     conductor_B "4_ACSR";
     conductor_N "4_DPX";
     spacing SinglePhase1B;
}

object line_configuration {
     name "3PH_H-2_ACSR2_ACSR4_ACSR4_ACSR";
     conductor_A "2_ACSR";
     conductor_B "2_ACSR";
     conductor_C "4_ACSR";
     conductor_N "4_ACSR";
     spacing ThreePhase1;
}

object line_configuration {
     name "1PH-4_WPALxx1/0_TPX";
     conductor_A "4_WPAL";
     conductor_N "1/0_TPX";
     spacing SinglePhase1A;
}

object line_configuration {
     name "1PH-x4_ACSRx1/0_TPX";
     conductor_B "4_ACSR";
     conductor_N "1/0_TPX";
     spacing SinglePhase1B;
}

object line_configuration {
     name "1PH-4_ACSRxx1/0_3W_CS";
     conductor_A "4_ACSR";
     conductor_N "1/0_3W_CS";
     spacing SinglePhase1A;
}

object line_configuration {
     name "1PH-x2_ACSRx4_ACSR";
     conductor_B "2_ACSR";
     conductor_N "4_ACSR";
     spacing SinglePhase1B;
}

object line_configuration {
     name "1PH-x2_ACSRx1/0_3W_CS";
     conductor_B "2_ACSR";
     conductor_N "1/0_3W_CS";
     spacing SinglePhase1B;
}

object line_configuration {
     name "3PH_H-2/0_ACSR2/0_ACSR2/0_ACSR2/0_ACSR";
     conductor_A "2/0_ACSR";
     conductor_B "2/0_ACSR";
     conductor_C "2/0_ACSR";
     conductor_N "2/0_ACSR";
     spacing ThreePhase1;
}

object line_configuration {
     name "1PH-2_ACSRxx1/0_TPX";
     conductor_A "2_ACSR";
     conductor_N "1/0_TPX";
     spacing SinglePhase1A;
}

object line_configuration {
     name "3PH_H-4_WPAL4_WPAL4_WPAL1/0_TPX";
     conductor_A "4_WPAL";
     conductor_B "4_WPAL";
     conductor_C "4_WPAL";
     conductor_N "1/0_TPX";
     spacing ThreePhase1;
}

object line_configuration {
     name "1PH-x4_WPALx2_ACSR";
     conductor_B "4_WPAL";
     conductor_N "2_ACSR";
     spacing SinglePhase1B;
}

object line_configuration {
     name "3PH_H-2/0_ACSR2/0_ACSR2/0_ACSR2_WPAL";
     conductor_A "2/0_ACSR";
     conductor_B "2/0_ACSR";
     conductor_C "2/0_ACSR";
     conductor_N "2_WPAL";
     spacing ThreePhase1;
}

object line_configuration {
     name "1PH-xx4_ACSR2_ACSR";
     conductor_C "4_ACSR";
     conductor_N "2_ACSR";
     spacing SinglePhase1C;
}

object line_configuration {
     name "1PH-x4_ACSRx4_TPX";
     conductor_B "4_ACSR";
     conductor_N "4_TPX";
     spacing SinglePhase1B;
}

object line_configuration {
     name "3PH_H-4_ACSR4_ACSR4_ACSR4_TPX";
     conductor_A "4_ACSR";
     conductor_B "4_ACSR";
     conductor_C "4_ACSR";
     conductor_N "4_TPX";
     spacing ThreePhase1;
}

object line_configuration {
     name "1PH-4_ACSRxx6_WPAL";
     conductor_A "4_ACSR";
     conductor_N "6_WPAL";
     spacing SinglePhase1A;
}

object line_configuration {
     name "1PH-xx4_ACSR4_TPX";
     conductor_C "4_ACSR";
     conductor_N "4_TPX";
     spacing SinglePhase1C;
}

object line_configuration {
     name "3PH_H-397_ACSR397_ACSR397_ACSR2/0_WPAL";
     conductor_A "397_ACSR";
     conductor_B "397_ACSR";
     conductor_C "397_ACSR";
     conductor_N "2/0_WPAL";
     spacing ThreePhase1;
}

object line_configuration {
     name "1PH-2/0_ACSRxx2_ACSR";
     conductor_A "2/0_ACSR";
     conductor_N "2_ACSR";
     spacing SinglePhase1A;
}

object line_configuration {
     name "3PH_H-2/0_ACSR2/0_ACSR2/0_ACSR4_ACSR";
     conductor_A "2/0_ACSR";
     conductor_B "2/0_ACSR";
     conductor_C "2/0_ACSR";
     conductor_N "4_ACSR";
     spacing ThreePhase1;
}

object line_configuration {
     name "1PH-xx4_WPAL1/0_TPX";
     conductor_C "4_WPAL";
     conductor_N "1/0_TPX";
     spacing SinglePhase1C;
}

object line_configuration {
     name "1PH-xx6_WPAL6_WPAL";
     conductor_C "6_WPAL";
     conductor_N "6_WPAL";
     spacing SinglePhase1C;
}

object line_configuration {
     name "1PH-x2_ACSRx4_TPX";
     conductor_B "2_ACSR";
     conductor_N "4_TPX";
     spacing SinglePhase1B;
}

object line_configuration {
     name "3PH_H-4_ACSR4_ACSR4_ACSR2_WPAL";
     conductor_A "4_ACSR";
     conductor_B "4_ACSR";
     conductor_C "4_ACSR";
     conductor_N "2_WPAL";
     spacing ThreePhase1;
}

object line_configuration {
     name "1PH-x4_ACSRx1/0_3W_CS";
     conductor_B "4_ACSR";
     conductor_N "1/0_3W_CS";
     spacing SinglePhase1B;
}

object line_configuration {
     name "1PH-xx2_ACSR4_DPX";
     conductor_C "2_ACSR";
     conductor_N "4_DPX";
     spacing SinglePhase1B;
}

object line_configuration {
     name "3P_1/0_AXNJ_DB";
     conductor_A "1/0_ACSR"; //These are not the correct values,
     conductor_B "1/0_ACSR"; //but are used to approximate for 3P & 1P.
     conductor_C "1/0_ACSR";
     conductor_N "1/0_ACSR";
     spacing ThreePhase1;
}

object line_configuration {
     name "1P_1/0_AXNJ_DB_A";
     conductor_A "1/0_ACSR";
     conductor_N "1/0_ACSR";
     spacing SinglePhase1A;
}

object line_configuration {
     name "1P_1/0_AXNJ_DB_B";
     conductor_B "1/0_ACSR";
     conductor_N "1/0_ACSR";
     spacing SinglePhase1B;
}

object line_configuration {
     name "1P_1/0_AXNJ_DB_C";
     conductor_C "1/0_ACSR";
     conductor_N "1/0_ACSR";
     spacing SinglePhase1C;
}

object line_configuration {
     name "CAP_LINE";      //Also known as 1PH-Connector.
     conductor_A "600_CU"; //These are not the correct values, but
     conductor_B "600_CU"; //will be used to approx. low loss lines.
     conductor_C "600_CU";
     conductor_N "600_CU";
     spacing ThreePhase1;
}

object line_configuration {
     name "3PH-Connector";
     conductor_A "600_CU";
     conductor_B "600_CU";
     conductor_C "600_CU";
     conductor_N "600_CU";
     spacing ThreePhase1;
}

object triplex_line_conductor {
     name "4/0triplex";
     resistance 1.535;
     geometric_mean_radius 0.0111;
     rating.summer.emergency 315 A;
     rating.summer.continuous 315 A;
     rating.winter.emergency 315 A;
     rating.winter.continuous 315 A;
}

object triplex_line_configuration {
     name "4/0Triplex";
     conductor_1 "4/0triplex";
     conductor_2 "4/0triplex";
     conductor_N "4/0triplex";
     insulation_thickness 0.08;
     diameter 0.368;
}

object triplex_line_configuration {
     name "750_Triplex";       //These values are not correct, but
     conductor_1 "4/0triplex"; //there are only four of them.
     conductor_2 "4/0triplex";
     conductor_N "4/0triplex";
     insulation_thickness 0.08;
     diameter 0.368;
}

// Overhead Lines

object overhead_line {
     phases ABCN;
     name "HVMV_Sub_connector";
     from "_HVMV_Sub_LSB";
     to "HVMV_Sub_48332";
     length 0.010000km;
     configuration "3PH-Connector";
}

object overhead_line {
     phases ABCN;
     name "Line_1";
     from "name";
     to "name";
     length 0.019796km;
     configuration "3PH_H-2/0_ACSR2/0_ACSR2/0_ACSR2_ACSR";
}

